reduced_cases/reduced_pglib_opf_case500_goc.m
%% MATPOWER Case Format : Version 2
function mpc = pglib_opf_case500_goc
mpc.version = '2';

%%-----  Power Flow Data  -----%%
%% system MVA base
mpc.baseMVA = 100.0;
%% bus data
%    bus_i    type    Pd    Qd    Gs    Bs    area    Vm    Va    baseKV    zone    Vmax    Vmin
mpc.bus = [
	1	1	4413.192855699999	1212.3355775400003	0.0	618.3902544315	1	1.0	0.0	138.0	1	1.1	0.9				
	63	1	274.318497	66.8521434	0.0	58.593117321851125	1	1.0	0.0	138.0	1	1.1	0.9				
	64	1	116.761317	35.145334399999996	0.0	0.0	1	1.0	0.0	138.0	1	1.1	0.9				
	68	1	28.629120000000004	5.4703638	0.0	0.0	1	1.0	0.0	138.0	1	1.1	0.9				
	159	1	73.406892	14.440844	0.0	0.0	1	1.0	0.0	138.0	1	1.1	0.9				
	182	1	167.70242109999998	25.940825200000003	0.0	0.0	1	1.0	0.0	138.0	1	1.1	0.9				
	183	1	263.688007	61.3857619	0.0	0.0	1	1.0	0.0	138.0	1	1.1	0.9				
	185	1	93.268528	3.438134	0.0	0.0	1	1.0	0.0	138.0	1	1.1	0.9				
	224	1	109.62065000000001	24.023945	0.0	0.0	1	1.0	0.0	138.0	1	1.1	0.9				
	238	1	131.241582	15.599002	0.0	0.0	1	1.0	0.0	138.0	1	1.1	0.9				
	282	1	0.0	0.0	0.0	0.0	1	1.0	0.0	345.0	1	1.1	0.9				
	313	3	12076.882267732002	3115.6192138719975	0.0	936.4227219760601	1	1.0	0.0	18.0	1	1.1	0.9				
	337	1	6.1773376	1.4309847	0.0	0.0	1	1.0	0.0	138.0	1	1.1	0.9				
	366	1	5.1225567	1.2692577	0.0	0.0	1	1.0	0.0	138.0	1	1.1	0.9				
	377	1	12.908702	5.2720275	0.0	0.0	1	1.0	0.0	138.0	1	1.1	0.9				
	472	2	0.0	0.0	0.0	0.0	1	1.0	0.0	138.0	1	1.1	0.9				
];

%% generator data
%    bus    Pg    Qg    Qmax    Qmin    Vg    mBase    status    Pmax    Pmin    Pc1    Pc2    Qc1min    Qc1max    Qc2min    Qc2max    ramp_agc    ramp_10    ramp_30    ramp_q    apf
mpc.gen = [
	313	34.463	7.856000000000001	18.01	-2.298	1.0	46.9	1	46.9	22.026															
	1	0.0	0.0	326.858	-72.832	1.0	888.2	0	888.1999999999999	146.11															
	1	643.217	127.013	326.858	-72.832	1.0	888.2	1	888.1999999999999	398.234															
	313	16.691	4.1875	9.6	-1.225	1.0	25.0	1	25.0	8.382															
	313	13.858	4.1875	9.6	-1.225	1.0	25.0	1	25.0	2.716															
	313	17.3305	4.1875	9.6	-1.225	1.0	25.0	1	25.0	9.661															
	313	16.8255	4.1875	9.6	-1.225	1.0	25.0	1	25.0	8.651															
	1	118.674	31.581	80.778	-17.616	1.0	158.7	1	158.7	78.648															
	1	0.0	0.0	80.778	-17.616	1.0	158.7	0	158.7	68.611															
	282	135.035	43.2495	110.623	-24.124	1.0	217.33	1	217.333	52.737															
	282	136.374	43.2495	110.623	-24.124	1.0	217.33	1	217.333	55.415000000000006															
	282	143.288	43.2495	110.623	-24.124	1.0	217.33	1	217.333	69.243															
	282	0.0	0.0	110.623	-24.124	1.0	217.33	0	217.333	64.598															
	282	0.0	0.0	110.623	-24.124	1.0	217.33	0	217.333	52.42400000000001															
	282	122.40600000000002	43.2495	110.623	-24.124	1.0	217.33	1	217.333	27.479															
	313	0.28	0.0835	0.192	-0.025	1.0	0.5	1	0.5	0.06															
	313	0.313	0.0835	0.192	-0.025	1.0	0.5	1	0.5	0.126															
	1	0.0	0.0	9.162	-1.9980000000000002	1.0	18.0	0	18.0	5.517															
	1	130.6165	35.515	90.84	-19.81	1.0	178.47	1	178.467	82.766															
	1	132.5635	35.515	90.84	-19.81	1.0	178.47	1	178.467	86.66															
	1	0.0	0.0	90.84	-19.81	1.0	178.47	0	178.467	63.99															
	1	121.06099999999999	35.515	90.84	-19.81	1.0	178.47	1	178.467	63.65500000000001															
	1	0.0	0.0	90.84	-19.81	1.0	178.47	0	178.467	54.225															
	1	121.1655	35.515	90.84	-19.81	1.0	178.47	1	178.467	63.864															
	313	42.106	11.306	25.920000000000005	-3.308	1.0	67.5	1	67.5	16.712															
	313	40.629	11.306	25.920000000000005	-3.308	1.0	67.5	1	67.5	13.757999999999997															
	313	0.0	0.0	3.2620000000000005	-0.8539999999999999	1.0	7.0	0	7.000000000000001	1.745															
	313	3.891	1.204	3.2620000000000005	-0.8539999999999999	1.0	7.0	1	7.000000000000001	0.782															
	64	22.668	5.645	12.940999999999999	-1.651	1.0	33.7	1	33.7	11.636															
	64	24.2095	5.645	12.940999999999999	-1.651	1.0	33.7	1	33.7	14.719															
	64	0.0	0.0	12.940999999999999	-1.651	1.0	33.7	0	33.7	6.952															
	313	0.0	0.0	428.597	-95.503	1.0	1164.67	0	1164.667	186.084															
	313	809.5270000000002	166.547	428.597	-95.503	1.0	1164.67	1	1164.667	454.387															
	313	806.4555	166.547	428.597	-95.503	1.0	1164.67	1	1164.667	448.244															
	313	237.492	66.191	169.302	-36.92	1.0	332.62	1	332.617	142.367															
	313	0.0	0.0	169.302	-36.92	1.0	332.62	0	332.617	38.676															
	313	184.7845	66.191	169.302	-36.92	1.0	332.62	1	332.617	36.952															
	313	209.1735	66.191	169.302	-36.92	1.0	332.62	1	332.617	85.73															
	313	0.0	0.0	169.302	-36.92	1.0	332.62	0	332.617	130.581															
	313	0.0	0.0	169.302	-36.92	1.0	332.62	0	332.617	84.68															
	313	0.0	0.0	61.08	-13.320000000000002	1.0	120.0	0	120.0	31.702															
	313	86.33	23.88	61.08	-13.320000000000002	1.0	120.0	1	120.0	52.66															
	313	88.9155	23.88	61.08	-13.320000000000002	1.0	120.0	1	120.0	57.830999999999996															
	313	0.0	0.0	61.08	-13.320000000000002	1.0	120.0	0	120.0	55.972															
	313	84.224	23.88	61.08	-13.320000000000002	1.0	120.0	1	120.0	48.448															
	313	70.3275	23.88	61.08	-13.320000000000002	1.0	120.0	1	120.0	20.655															
	313	0.6295	0.172	0.466	-0.122	1.0	1.0	1	1.0	0.259															
	313	0.5715	0.172	0.466	-0.122	1.0	1.0	1	1.0	0.143															
	313	0.674	0.172	0.466	-0.122	1.0	1.0	1	1.0	0.348															
	313	0.7045	0.172	0.466	-0.122	1.0	1.0	1	1.0	0.409															
	313	42.423	11.868	32.154	-8.418	1.0	69.0	1	69.0	15.845999999999998															
	313	0.0	0.0	32.154	-8.418	1.0	69.0	0	69.0	12.549															
	282	174.097	46.7355	119.539	-26.068	1.0	234.85	1	234.85	113.344															
	282	165.63	46.7355	119.539	-26.068	1.0	234.85	1	234.85	96.41															
	282	0.0	0.0	119.539	-26.068	1.0	234.85	0	234.85	83.983															
	282	164.3445	46.7355	119.539	-26.068	1.0	234.85	1	234.85	93.839															
	1	0.0	0.0	83.569	-21.879	1.0	179.33	0	179.333	41.662															
	1	108.94699999999999	30.845	83.569	-21.879	1.0	179.33	1	179.333	38.561															
	1	0.0	0.0	83.569	-21.879	1.0	179.33	0	179.333	80.146															
	182	33.0455	9.6515	24.687	-5.384	1.0	48.5	1	48.5	17.591															
	182	35.5875	9.6515	24.687	-5.384	1.0	48.5	1	48.5	22.675															
	313	0.0	0.0	28.800000000000004	-3.675	1.0	75.0	0	75.0	36.562															
	313	54.1725	12.562499999999998	28.800000000000004	-3.675	1.0	75.0	1	75.0	33.345															
	313	52.459	12.562499999999998	28.800000000000004	-3.675	1.0	75.0	1	75.0	29.918															
	313	17.738	4.824	11.059	-1.411	1.0	28.8	1	28.800000000000004	6.676															
	313	21.4925	4.824	11.059	-1.411	1.0	28.8	1	28.800000000000004	14.185															
	313	19.996	4.824	11.059	-1.411	1.0	28.8	1	28.800000000000004	11.192															
	313	19.417	4.824	11.059	-1.411	1.0	28.8	1	28.800000000000004	10.034															
	1	71.5885	21.89	55.99000000000001	-12.21	1.0	110.0	1	110.00000000000001	33.177															
	313	22.006	5.081	11.648	-1.486	1.0	30.33	1	30.333	13.679															
	313	17.979	5.081	11.648	-1.486	1.0	30.33	1	30.333	5.625															
	313	0.0	0.0	11.648	-1.486	1.0	30.33	0	30.333	12.388															
	313	13.687	3.6464999999999996	9.879	-2.586	1.0	21.2	1	21.2	6.174															
	313	36.4625	8.819	20.218	-2.58	1.0	52.65	1	52.65	20.275															
	313	38.8985	8.819	20.218	-2.58	1.0	52.65	1	52.65	25.147															
	313	36.023	8.819	20.218	-2.58	1.0	52.65	1	52.65	19.396															
	313	0.0	0.0	20.218	-2.58	1.0	52.65	0	52.65	15.946															
	238	0.0	0.0	14.048	-3.064	1.0	27.6	0	27.6	11.587															
	238	20.4465	5.492	14.048	-3.064	1.0	27.6	1	27.6	13.293															
	313	392.1035	121.346	328.763	-86.071	1.0	705.5	1	705.5	78.707															
	313	391.8455	121.346	328.763	-86.071	1.0	705.5	1	705.5	78.191															
	313	0.0	0.0	328.763	-86.071	1.0	705.5	0	705.5	259.966															
	313	495.8065	121.346	328.763	-86.071	1.0	705.5	1	705.5	286.113															
	366	11.3645	3.4334999999999996	7.872	-1.005	1.0	20.5	1	20.5	2.229															
	366	14.7755	3.4334999999999996	7.872	-1.005	1.0	20.5	1	20.5	9.051															
	366	0.0	0.0	7.872	-1.005	1.0	20.5	0	20.5	6.32															
	366	0.0	0.0	7.872	-1.005	1.0	20.5	0	20.5	9.565															
	313	178.966	48.8825	132.437	-34.672	1.0	284.2	1	284.2	73.732															
	313	209.049	48.8825	132.437	-34.672	1.0	284.2	1	284.2	133.898															
	313	15.879499999999998	4.975	12.725	-2.775	1.0	25.0	1	25.0	6.7589999999999995															
	377	148.7015	46.123	117.973	-25.727	1.0	231.77	1	231.77500000000003	65.628															
	377	149.218	46.123	117.973	-25.727	1.0	231.77	1	231.77500000000003	66.661															
	377	131.406	46.123	117.973	-25.727	1.0	231.77	1	231.77500000000003	31.037															
	377	172.6965	46.123	117.973	-25.727	1.0	231.77	1	231.77500000000003	113.618															
	313	0.0	0.0	2.842	-0.363	1.0	7.4	0	7.400000000000001	3.5539999999999994															
	313	5.1625	1.2395	2.842	-0.363	1.0	7.4	1	7.400000000000001	2.925															
	313	4.139	1.2395	2.842	-0.363	1.0	7.4	1	7.400000000000001	0.878															
	313	4.7965	1.2395	2.842	-0.363	1.0	7.4	1	7.400000000000001	2.193															
	313	0.0	0.0	5.76	-0.735	1.0	15.0	0	15.0	5.179															
	313	11.1675	2.5125	5.76	-0.735	1.0	15.0	1	15.0	7.335															
	313	9.073	2.5125	5.76	-0.735	1.0	15.0	1	15.0	3.1460000000000004															
	313	8.689	2.5125	5.76	-0.735	1.0	15.0	1	15.0	2.378															
	313	47.404	11.2785	25.856	-3.299	1.0	67.33	1	67.333	27.474999999999998															
	313	48.736	11.2785	25.856	-3.299	1.0	67.33	1	67.333	30.139															
	313	39.1825	11.2785	25.856	-3.299	1.0	67.33	1	67.333	11.032															
	313	46.2705	11.2785	25.856	-3.299	1.0	67.33	1	67.333	25.208															
	313	39.964	11.2785	25.856	-3.299	1.0	67.33	1	67.333	12.595															
	313	0.0	0.0	25.856	-3.299	1.0	67.33	0	67.333	7.468															
	1	89.373	28.158	72.023	-15.707	1.0	141.5	1	141.5	37.246															
	1	0.0	0.0	72.023	-15.707	1.0	141.5	0	141.5	45.823															
	1	0.0	0.0	72.023	-15.707	1.0	141.5	0	141.5	59.80599999999999															
	1	0.0	0.0	72.023	-15.707	1.0	141.5	0	141.5	46.001															
	63	19.08	4.9415	11.328	-1.445	1.0	29.5	1	29.5	8.66															
	63	21.751	4.9415	11.328	-1.445	1.0	29.5	1	29.5	14.002															
	63	22.052	4.9415	11.328	-1.445	1.0	29.5	1	29.5	14.604000000000001															
	63	18.506	4.9415	11.328	-1.445	1.0	29.5	1	29.5	7.512															
	63	17.8405	4.9415	11.328	-1.445	1.0	29.5	1	29.5	6.181															
	63	21.674	4.9415	11.328	-1.445	1.0	29.5	1	29.5	13.848000000000003															
	313	53.8725	15.787499999999998	40.381	-8.806	1.0	79.33	1	79.333	28.412															
	313	53.117999999999995	15.787499999999998	40.381	-8.806	1.0	79.33	1	79.333	26.903															
	313	48.24	15.787499999999998	40.381	-8.806	1.0	79.33	1	79.333	17.147															
	313	48.8045	15.787499999999998	40.381	-8.806	1.0	79.33	1	79.333	18.276															
	313	55.47	15.787499999999998	40.381	-8.806	1.0	79.33	1	79.333	31.607000000000003															
	313	53.4175	15.787499999999998	40.381	-8.806	1.0	79.33	1	79.333	27.502															
	1	0.8630000000000001	0.251	0.576	-0.074	1.0	1.5	1	1.5	0.22599999999999998															
	1	0.0	0.0	0.576	-0.074	1.0	1.5	0	1.5	0.589															
	1	0.0	0.0	31.176	-6.799000000000001	1.0	61.25	0	61.25000000000001	22.338															
	1	42.557	12.1885	31.176	-6.799000000000001	1.0	61.25	1	61.25000000000001	23.864															
	159	31.010000000000005	7.1185	16.32	-2.083	1.0	42.5	1	42.5	19.52															
	159	29.0165	7.1185	16.32	-2.083	1.0	42.5	1	42.5	15.533															
	159	27.7565	7.1185	16.32	-2.083	1.0	42.5	1	42.5	13.013															
	159	27.5805	7.1185	16.32	-2.083	1.0	42.5	1	42.5	12.661															
	1	63.99349999999999	21.691	55.481	-12.099	1.0	109.0	1	109.00000000000001	18.987															
	1	61.8655	21.691	55.481	-12.099	1.0	109.0	1	109.00000000000001	14.731															
	1	70.785	21.691	55.481	-12.099	1.0	109.0	1	109.00000000000001	32.57															
	1	65.653	21.691	55.481	-12.099	1.0	109.0	1	109.00000000000001	22.306															
	1	61.5715	21.691	55.481	-12.099	1.0	109.0	1	109.00000000000001	14.143															
	1	66.2415	21.691	55.481	-12.099	1.0	109.0	1	109.00000000000001	23.483															
	313	32.777	9.0285	20.698	-2.641	1.0	53.9	1	53.900000000000006	11.654															
	1	0.0	0.0	165.029	-43.205	1.0	354.14	0	354.14	67.963															
	1	242.65699999999998	60.912	165.029	-43.205	1.0	354.14	1	354.14	131.174															
	1	0.0	0.0	165.029	-43.205	1.0	354.14	0	354.14	149.645															
	1	205.3915	60.912	165.029	-43.205	1.0	354.14	1	354.14	56.643															
	1	211.0205	60.912	165.029	-43.205	1.0	354.14	1	354.14	67.901															
	313	0.0	0.0	26.213000000000005	-5.717	1.0	51.5	0	51.5	24.828															
	313	37.7185	10.248	26.213000000000005	-5.717	1.0	51.5	1	51.5	23.937															
	313	191.3985	46.44	125.82	-32.94	1.0	270.0	1	270.0	112.797															
	313	0.0	0.0	125.82	-32.94	1.0	270.0	0	270.0	87.627															
	313	186.408	46.44	125.82	-32.94	1.0	270.0	1	270.0	102.816															
	313	184.922	46.44	125.82	-32.94	1.0	270.0	1	270.0	99.844															
	313	0.0	0.0	125.82	-32.94	1.0	270.0	0	270.0	67.953															
	313	139.595	44.775	114.525	-24.975	1.0	225.0	1	225.0	54.18999999999999															
	313	166.877	44.775	114.525	-24.975	1.0	225.0	1	225.0	108.75399999999999															
	313	150.335	44.775	114.525	-24.975	1.0	225.0	1	225.0	75.67															
	313	157.032	44.775	114.525	-24.975	1.0	225.0	1	225.0	89.064															
	313	0.0	0.0	114.82999999999998	-25.042	1.0	225.6	0	225.59999999999997	110.17000000000002															
	313	0.0	0.0	114.82999999999998	-25.042	1.0	225.6	0	225.59999999999997	58.277															
	313	157.882	44.894	114.82999999999998	-25.042	1.0	225.6	1	225.59999999999997	90.164															
	313	128.7	44.894	114.82999999999998	-25.042	1.0	225.6	1	225.59999999999997	31.8															
	313	27.017000000000003	7.152500000000001	16.397	-2.092	1.0	42.7	1	42.7	11.334															
	313	30.287999999999997	7.152500000000001	16.397	-2.092	1.0	42.7	1	42.7	17.876															
	313	29.197500000000005	7.152500000000001	16.397	-2.092	1.0	42.7	1	42.7	15.695															
	1	0.0	0.0	1.527	-0.333	1.0	3.0	0	3.0	1.43															
	1	0.0	0.0	1.527	-0.333	1.0	3.0	0	3.0	0.466															
	1	2.0705	0.597	1.527	-0.333	1.0	3.0	1	3.0	1.141															
	1	0.0	0.0	1.527	-0.333	1.0	3.0	0	3.0	1.295															
	313	206.461	48.7345	132.036	-34.567	1.0	283.34	1	283.34	129.582															
	313	210.545	48.7345	132.036	-34.567	1.0	283.34	1	283.34	137.75															
	313	198.3295	48.7345	132.036	-34.567	1.0	283.34	1	283.34	113.31899999999999															
	313	183.774	48.7345	132.036	-34.567	1.0	283.34	1	283.34	84.208															
	313	174.746	48.7345	132.036	-34.567	1.0	283.34	1	283.34	66.152															
	313	0.0	0.0	9.331	-1.191	1.0	24.3	0	24.3	11.536															
	313	17.6065	4.07	9.331	-1.191	1.0	24.3	1	24.3	10.913															
	313	16.7525	4.07	9.331	-1.191	1.0	24.3	1	24.3	9.205															
	313	131.5465	37.213	95.183	-20.757	1.0	187.0	1	187.0	76.093															
	313	116.005	37.213	95.183	-20.757	1.0	187.0	1	187.0	45.01															
	313	108.6965	37.213	95.183	-20.757	1.0	187.0	1	187.0	30.393000000000004															
	313	131.5655	37.213	95.183	-20.757	1.0	187.0	1	187.0	76.131															
	313	192.012	54.579	139.602	-30.444	1.0	274.27	1	274.267	109.75700000000002															
	313	176.318	54.579	139.602	-30.444	1.0	274.27	1	274.267	78.369															
	313	0.0	0.0	139.602	-30.444	1.0	274.27	0	274.267	58.53499999999999															
	313	17.9105	4.2295	9.696	-1.237	1.0	25.25	1	25.25	10.571															
	313	15.498000000000001	4.2295	9.696	-1.237	1.0	25.25	1	25.25	5.746															
	313	372.7975	96.75	262.125	-68.625	1.0	562.5	1	562.5	183.095															
	313	326.623	96.75	262.125	-68.625	1.0	562.5	1	562.5	90.746															
	472	16.1055	4.876	12.471	-2.719	1.0	24.5	1	24.5	7.710999999999999															
	472	17.4695	4.876	12.471	-2.719	1.0	24.5	1	24.5	10.439															
	313	0.0	0.0	11.213	-1.431	1.0	29.2	0	29.2	9.221															
	313	16.712	4.891	11.213	-1.431	1.0	29.2	1	29.2	4.224															
	313	21.567	4.891	11.213	-1.431	1.0	29.2	1	29.2	13.934															
	313	34.6005	9.811	25.094	-5.472	1.0	49.3	1	49.3	19.901															
	313	34.2015	9.811	25.094	-5.472	1.0	49.3	1	49.3	19.103															
	313	0.0	0.0	187.593	-49.112	1.0	402.56	0	402.56	154.153															
	313	0.0	0.0	187.593	-49.112	1.0	402.56	0	402.56	86.185															
	313	295.8225	69.2405	187.593	-49.112	1.0	402.56	1	402.56	189.085															
	313	258.232	69.2405	187.593	-49.112	1.0	402.56	1	402.56	113.90400000000001															
	313	0.0	0.0	187.593	-49.112	1.0	402.56	0	402.56	56.891999999999996															
	313	16.2365	4.8295	11.072	-1.413	1.0	28.83	1	28.833	3.64															
	313	20.6945	4.8295	11.072	-1.413	1.0	28.83	1	28.833	12.556000000000001															
	313	0.0	0.0	11.072	-1.413	1.0	28.83	0	28.833	13.66															
	313	17.7785	4.8295	11.072	-1.413	1.0	28.83	1	28.833	6.724000000000001															
	313	0.0	0.0	11.072	-1.413	1.0	28.83	0	28.833	6.272															
	313	19.1545	4.8295	11.072	-1.413	1.0	28.83	1	28.833	9.476															
	313	8.084	2.4875	6.363	-1.388	1.0	12.5	1	12.5	3.6680000000000006															
	313	3.6445	1.0775	2.47	-0.315	1.0	6.43	1	6.433	0.856															
	313	4.4	1.0775	2.47	-0.315	1.0	6.43	1	6.433	2.367															
	313	4.599	1.0775	2.47	-0.315	1.0	6.43	1	6.433	2.765															
	313	4.58	1.0775	2.47	-0.315	1.0	6.43	1	6.433	2.727															
	313	3.8645	1.0775	2.47	-0.315	1.0	6.43	1	6.433	1.296															
	313	3.8525000000000005	1.0775	2.47	-0.315	1.0	6.43	1	6.433	1.272															
	1	0.861	0.24650000000000002	0.668	-0.175	1.0	1.43	1	1.433	0.289															
	1	0.8465	0.24650000000000002	0.668	-0.175	1.0	1.43	1	1.433	0.26															
	1	0.9570000000000001	0.24650000000000002	0.668	-0.175	1.0	1.43	1	1.433	0.481															
	1	1.0085	0.24650000000000002	0.668	-0.175	1.0	1.43	1	1.433	0.584															
	1	0.9594999999999999	0.24650000000000002	0.668	-0.175	1.0	1.43	1	1.433	0.486															
	1	1.047	0.24650000000000002	0.668	-0.175	1.0	1.43	1	1.433	0.661															
	1	0.0	0.0	1.7310000000000003	-0.377	1.0	3.4	0	3.4000000000000004	1.129															
	1	90.533	27.860000000000003	71.26	-15.54	1.0	140.0	1	140.0	41.066															
	1	89.4515	27.860000000000003	71.26	-15.54	1.0	140.0	1	140.0	38.903															
	313	50.1505	15.159	34.752	-4.434	1.0	90.5	1	90.5	9.801															
	313	63.005	15.159	34.752	-4.434	1.0	90.5	1	90.5	35.51															
	1	1.1875	0.2905	0.666	-0.085	1.0	1.73	1	1.733	0.642															
	1	1.0915	0.2905	0.666	-0.085	1.0	1.73	1	1.733	0.45000000000000007															
	1	1.2695	0.2905	0.666	-0.085	1.0	1.73	1	1.733	0.8060000000000002															
];

%% branch data
%    f_bus    t_bus    r    x    b    rateA    rateB    rateC    ratio    angle    status    angmin    angmax
mpc.branch = [
	313	63	0.012542	0.0731735	0.0174808	188.33	188.33	188.33	0	0	1	-29.999999999999996	29.999999999999996								
	313	1	0.0229231	0.141757	0.0331327	284.38	284.38	284.38	0	0	1	-29.999999999999996	29.999999999999996								
	68	159	0.00605992	0.0375113	0.0255276	229.73	229.73	229.73	0	0	1	-29.999999999999996	29.999999999999996								
	68	377	0.00417649	0.0277901	0.0160845	244.32	244.32	244.32	0	0	1	-29.999999999999996	29.999999999999996								
	313	1	0.0263485	0.135443	0.0504152	230.13	230.13	230.13	0	0	1	-29.999999999999996	29.999999999999996								
	1	366	0.0117749	0.0695592	0.0171149	206.17999999999998	206.17999999999998	206.17999999999998	0	0	1	-29.999999999999996	29.999999999999996								
	64	313	0.010917	0.0509877	0.02854	235.27	235.27	235.27	0	0	1	-29.999999999999996	29.999999999999996								
	182	185	0.00171453	0.00889045	0.0238406	398.72	398.72	398.72	0	0	1	-29.999999999999996	29.999999999999996								
	183	313	0.00555018	0.0391876	0.0158808	245.54	245.54	245.54	0	0	1	-29.999999999999996	29.999999999999996								
	185	1	0.00395185	0.0294432	0.00874079	296.9	296.9	296.9	0	0	1	-29.999999999999996	29.999999999999996								
	1	313	0.00209646	0.0245254	0.404187	990.64	990.64	990.64	0	0	1	-29.999999999999996	29.999999999999996								
	1	313	0.000908512	0.0109152	0.338099	1151.32	1151.32	1151.32	0	0	1	-29.999999999999996	29.999999999999996								
	1	183	0.00296045	0.024531	0.0147562	270.38	270.38	270.38	0	0	1	-29.999999999999996	29.999999999999996								
	313	224	0.00588657	0.037647	0.0212807	231.09000000000003	231.09000000000003	231.09000000000003	0	0	1	-29.999999999999996	29.999999999999996								
	224	377	0.00785703	0.0528241	0.0173832	282.56	282.56	282.56	0	0	1	-29.999999999999996	29.999999999999996								
	64	238	0.00606403	0.0337143	0.0236608	323.04	323.04	323.04	0	0	1	-29.999999999999996	29.999999999999996								
	182	224	0.00647754	0.0329659	0.0188678	216.41	216.41	216.41	0	0	1	-29.999999999999996	29.999999999999996								
	182	238	0.0112807	0.0610502	0.0246742	189.35	189.35	189.35	0	0	1	-29.999999999999996	29.999999999999996								
	282	313	0.00156589	0.0197034	0.584176	1362.72	1362.72	1362.72	0	0	1	-29.999999999999996	29.999999999999996								
	282	313	0.00139177	0.0169482	0.23371	1419.82	1419.82	1419.82	0	0	1	-29.999999999999996	29.999999999999996								
	337	238	0.00748705	0.0468268	0.0433188	243.37	243.37	243.37	0	0	1	-29.999999999999996	29.999999999999996								
	238	366	0.0068981	0.0402096	0.0127396	196.5	196.5	196.5	0	0	1	-29.999999999999996	29.999999999999996								
	238	377	0.012625	0.0936918	0.0239153	228.99000000000004	228.99000000000004	228.99000000000004	0	0	1	-29.999999999999996	29.999999999999996								
	238	472	0.00222543	0.0129046	0.00606894	247.89	247.89	247.89	0	0	1	-29.999999999999996	29.999999999999996								
	377	337	0.00166037	0.0118851	0.00793188	278.49	278.49	278.49	0	0	1	-29.999999999999996	29.999999999999996								
	63	313	0.000264513	0.0010891	0.0	99999.0	99999.0	99999.0	0	0	1	-29.999999999999996	29.999999999999996								
	159	63	0.00812376	0.0533399	0.0183921	259.18	259.18	259.18	0	0	1	-29.999999999999996	29.999999999999996								
	313	63	0.0101345	0.0604995	0.0233408	160.34	160.34	160.34	0	0	1	-29.999999999999996	29.999999999999996								
	313	183	0.00703121	0.0532559	0.0407168	187.56	187.56	187.56	0	0	1	-29.999999999999996	29.999999999999996								
	472	377	0.00773654	0.0559391	0.0348232	236.79000000000002	236.79000000000002	236.79000000000002	0	0	1	-29.999999999999996	29.999999999999996								
	182	282	0.000525978	0.0318151	0.0	471.3	471.3	471.3	1.01875	0.0	1	-29.999999999999996	29.999999999999996								
	182	282	0.000525978	0.0318151	0.0	471.3	471.3	471.3	1.01875	0.0	1	-29.999999999999996	29.999999999999996								
	182	282	0.000525978	0.0318151	0.0	471.3	471.3	471.3	1.01875	0.0	1	-29.999999999999996	29.999999999999996								
	337	282	0.00045459	0.0246348	0.0	318.58	318.58	318.58	1.0125	0.0	1	-29.999999999999996	29.999999999999996								
];

%%-----  OPF Data  -----%%
%% cost data
%    1    startup    shutdown    n    x1    y1    ...    xn    yn
%    2    startup    shutdown    n    c(n-1)    ...    c0
mpc.gencost = [
	2	0.0	0.0	3	0.0	30.0	0.0
	2	0.0	0.0	3	0.0016900000000000003	8.281	0.0
	2	0.0	0.0	3	0.001098	9.109	0.0
	2	0.0	0.0	3	0.0	30.0	0.0
	2	0.0	0.0	3	0.0	30.0	0.0
	2	0.0	0.0	3	0.0	30.0	0.0
	2	0.0	0.0	3	0.0	30.0	0.0
	2	0.0	0.0	3	0.01007	18.5	-1.038
	2	0.0	0.0	3	0.01305	18.52	-1.241
	2	0.0	0.0	3	0.019700000000000002	17.87	-1.92
	2	0.0	0.0	3	0.01694	17.82	-1.692
	2	0.0	0.0	3	0.01915	19.41	-2.137
	2	0.0	0.0	3	0.01717	18.52	-1.849
	2	0.0	0.0	3	0.023960000000000002	20.12	-2.329
	2	0.0	0.0	3	0.021150000000000002	16.5	-1.566
	2	0.0	0.0	3	0.0	30.0	0.0
	2	0.0	0.0	3	0.0	30.0	0.0
	2	0.0	0.0	3	0.0	16.97	-1.147
	2	0.0	0.0	3	0.01219	20.990000000000002	-1.359
	2	0.0	0.0	3	0.01066	17.09	-1.219
	2	0.0	0.0	3	0.01344	15.74	-1.309
	2	0.0	0.0	3	0.01579	19.37	-1.534
	2	0.0	0.0	3	0.016	17.23	-1.43
	2	0.0	0.0	3	0.01866	19.15	-1.817
	2	0.0	0.0	3	0.0	30.0	0.0
	2	0.0	0.0	3	0.0	30.0	0.0
	2	0.0	0.0	3	0.0	30.0	0.0
	2	0.0	0.0	3	0.0	30.0	0.0
	2	0.0	0.0	3	0.0	30.0	0.0
	2	0.0	0.0	3	0.0	30.0	0.0
	2	0.0	0.0	3	0.0	30.0	0.0
	2	0.0	0.0	3	0.001698	8.351	0.0
	2	0.0	0.0	3	0.0012180000000000001	9.206	0.0
	2	0.0	0.0	3	0.0012220000000000002	9.188	0.0
	2	0.0	0.0	3	0.01456	22.580000000000002	-2.889
	2	0.0	0.0	3	0.01987	18.43	-2.18
	2	0.0	0.0	3	0.025510000000000005	19.59	-2.757
	2	0.0	0.0	3	0.02119	19.74	-3.255
	2	0.0	0.0	3	0.013340000000000001	19.17	-2.543
	2	0.0	0.0	3	0.01662	18.32	-2.537
	2	0.0	0.0	3	0.01755	17.29	0.0
	2	0.0	0.0	3	0.0	18.68	0.0
	2	0.0	0.0	3	0.0	18.59	0.0
	2	0.0	0.0	3	0.0	20.01	0.0
	2	0.0	0.0	3	0.0	17.63	0.0
	2	0.0	0.0	3	0.01531	18.12	0.0
	2	0.0	0.0	3	0.0	30.0	0.0
	2	0.0	0.0	3	0.0	30.0	0.0
	2	0.0	0.0	3	0.0	30.0	0.0
	2	0.0	0.0	3	0.0	30.0	0.0
	2	0.0	0.0	3	0.0	34.42	-36.1
	2	0.0	0.0	3	0.0	31.18	-42.12
	2	0.0	0.0	3	0.01256	20.31	-1.884
	2	0.0	0.0	3	0.01432	20.6	-1.96
	2	0.0	0.0	3	0.01262	16.14	-1.616
	2	0.0	0.0	3	0.01423	18.96	-1.933
	2	0.0	0.0	3	0.0395	32.4	-3.114
	2	0.0	0.0	3	0.04236	30.5	-3.223
	2	0.0	0.0	3	0.02547	31.94	-2.792
	2	0.0	0.0	3	0.0	15.88	-7.369
	2	0.0	0.0	3	0.0	16.24	0.0
	2	0.0	0.0	3	0.0	30.0	0.0
	2	0.0	0.0	3	0.0	30.0	0.0
	2	0.0	0.0	3	0.0	30.0	0.0
	2	0.0	0.0	3	0.0	30.0	0.0
	2	0.0	0.0	3	0.0	30.0	0.0
	2	0.0	0.0	3	0.0	30.0	0.0
	2	0.0	0.0	3	0.0	30.0	0.0
	2	0.0	0.0	3	0.0	18.25	-59.22
	2	0.0	0.0	3	0.0	30.0	0.0
	2	0.0	0.0	3	0.0	30.0	0.0
	2	0.0	0.0	3	0.0	30.0	0.0
	2	0.0	0.0	3	0.0	30.0	0.0
	2	0.0	0.0	3	0.0	30.0	0.0
	2	0.0	0.0	3	0.0	30.0	0.0
	2	0.0	0.0	3	0.0	30.0	0.0
	2	0.0	0.0	3	0.0	30.0	0.0
	2	0.0	0.0	3	0.0	16.89	0.0
	2	0.0	0.0	3	0.0	17.24	0.0
	2	0.0	0.0	3	0.07238	32.4	-16.6
	2	0.0	0.0	3	0.09706	41.56	-22.21
	2	0.0	0.0	3	0.06372000000000001	60.65	-24.9
	2	0.0	0.0	3	0.04619000000000001	57.64	-18.86
	2	0.0	0.0	3	0.0	30.0	0.0
	2	0.0	0.0	3	0.0	30.0	0.0
	2	0.0	0.0	3	0.0	30.0	0.0
	2	0.0	0.0	3	0.0	30.0	0.0
	2	0.0	0.0	3	0.055110000000000006	35.08	-7.252
	2	0.0	0.0	3	0.03611	40.51	-6.465
	2	0.0	0.0	3	0.0	16.81	-2.082
	2	0.0	0.0	3	0.01743	19.43	-1.954
	2	0.0	0.0	3	0.02033	20.52	-2.296
	2	0.0	0.0	3	0.02259	17.81	-1.818
	2	0.0	0.0	3	0.014	21.09	-2.093
	2	0.0	0.0	3	0.0	30.0	0.0
	2	0.0	0.0	3	0.0	30.0	0.0
	2	0.0	0.0	3	0.0	30.0	0.0
	2	0.0	0.0	3	0.0	30.0	0.0
	2	0.0	0.0	3	0.0	30.0	0.0
	2	0.0	0.0	3	0.0	30.0	0.0
	2	0.0	0.0	3	0.0	30.0	0.0
	2	0.0	0.0	3	0.0	30.0	0.0
	2	0.0	0.0	3	0.0	30.0	0.0
	2	0.0	0.0	3	0.0	30.0	0.0
	2	0.0	0.0	3	0.0	30.0	0.0
	2	0.0	0.0	3	0.0	30.0	0.0
	2	0.0	0.0	3	0.0	30.0	0.0
	2	0.0	0.0	3	0.0	30.0	0.0
	2	0.0	0.0	3	0.01632	15.85	-1.077
	2	0.0	0.0	3	0.01435	17.2	-1.051
	2	0.0	0.0	3	0.01315	16.85	-1.112
	2	0.0	0.0	3	0.01543	18.81	-1.131
	2	0.0	0.0	3	0.0	30.0	0.0
	2	0.0	0.0	3	0.0	30.0	0.0
	2	0.0	0.0	3	0.0	30.0	0.0
	2	0.0	0.0	3	0.0	30.0	0.0
	2	0.0	0.0	3	0.0	30.0	0.0
	2	0.0	0.0	3	0.0	30.0	0.0
	2	0.0	0.0	3	0.0	18.6	-22.78
	2	0.0	0.0	3	0.0	16.85	-20.94
	2	0.0	0.0	3	0.0	17.23	-18.24
	2	0.0	0.0	3	0.0	18.16	-21.24
	2	0.0	0.0	3	0.0	17.98	0.0
	2	0.0	0.0	3	0.0	18.59	-25.38
	2	0.0	0.0	3	0.0	30.0	0.0
	2	0.0	0.0	3	0.0	30.0	0.0
	2	0.0	0.0	3	0.0	17.74	-13.65
	2	0.0	0.0	3	0.0	14.55	0.0
	2	0.0	0.0	3	0.0	30.0	0.0
	2	0.0	0.0	3	0.0	30.0	0.0
	2	0.0	0.0	3	0.0	30.0	0.0
	2	0.0	0.0	3	0.0	30.0	0.0
	2	0.0	0.0	3	0.0	17.44	-39.95
	2	0.0	0.0	3	0.0	17.68	-39.85
	2	0.0	0.0	3	0.0	16.67	-51.69
	2	0.0	0.0	3	0.0	17.29	-40.04
	2	0.0	0.0	3	0.0	15.92	-38.62
	2	0.0	0.0	3	0.01782	18.55	0.0
	2	0.0	0.0	3	0.0	30.0	0.0
	2	0.0	0.0	3	0.07006000000000001	36.3	-9.988
	2	0.0	0.0	3	0.04361	36.45	-8.58
	2	0.0	0.0	3	0.04884000000000001	45.53	-10.24
	2	0.0	0.0	3	0.07723	35.22	-10.19
	2	0.0	0.0	3	0.05828	32.24	-8.31
	2	0.0	0.0	3	0.0	17.32	0.0
	2	0.0	0.0	3	0.0	14.96	0.0
	2	0.0	0.0	3	0.0321	35.55	-5.101
	2	0.0	0.0	3	0.04544000000000001	32.6	-6.358
	2	0.0	0.0	3	0.04928	38.76	-7.503
	2	0.0	0.0	3	0.04114	33.74	-6.166
	2	0.0	0.0	3	0.05504	35.86	-6.78
	2	0.0	0.0	3	0.02348	19.96	-2.36
	2	0.0	0.0	3	0.010090000000000002	18.25	-1.451
	2	0.0	0.0	3	0.01625	16.86	-1.93
	2	0.0	0.0	3	0.01542	20.59	-1.999
	2	0.0	0.0	3	0.011980000000000001	20.42	-1.74
	2	0.0	0.0	3	0.02412	21.75	-2.514
	2	0.0	0.0	3	0.017860000000000004	20.6	-2.333
	2	0.0	0.0	3	0.02627	19.18	-2.102
	2	0.0	0.0	3	0.0	30.0	0.0
	2	0.0	0.0	3	0.0	30.0	0.0
	2	0.0	0.0	3	0.0	30.0	0.0
	2	0.0	0.0	3	0.0	15.73	0.0
	2	0.0	0.0	3	0.0	17.87	0.0
	2	0.0	0.0	3	0.0	16.44	0.0
	2	0.0	0.0	3	0.0	14.92	0.0
	2	0.0	0.0	3	0.03595	38.03	-6.309
	2	0.0	0.0	3	0.0334	42.34	-6.071
	2	0.0	0.0	3	0.03545	36.39	-5.768
	2	0.0	0.0	3	0.05358000000000001	36.26	-7.519
	2	0.0	0.0	3	0.05034	31.34	-6.279
	2	0.0	0.0	3	0.0	30.0	0.0
	2	0.0	0.0	3	0.0	30.0	0.0
	2	0.0	0.0	3	0.0	30.0	0.0
	2	0.0	0.0	3	0.013290000000000001	15.42	-1.455
	2	0.0	0.0	3	0.02109	18.78	-1.762
	2	0.0	0.0	3	0.01965	16.67	-1.379
	2	0.0	0.0	3	0.01365	18.54	-1.494
	2	0.0	0.0	3	0.01531	21.78	-2.414
	2	0.0	0.0	3	0.019080000000000003	17.54	-2.541
	2	0.0	0.0	3	0.02191	19.74	-2.536
	2	0.0	0.0	3	0.0	30.0	0.0
	2	0.0	0.0	3	0.0	30.0	0.0
	2	0.0	0.0	3	0.05819	47.18	-16.98
	2	0.0	0.0	3	0.0804	36.88	-16.91
	2	0.0	0.0	3	0.0	14.25	-1.439
	2	0.0	0.0	3	0.0	14.75	0.0
	2	0.0	0.0	3	0.0	30.0	0.0
	2	0.0	0.0	3	0.0	30.0	0.0
	2	0.0	0.0	3	0.0	30.0	0.0
	2	0.0	0.0	3	0.0	17.32	0.0
	2	0.0	0.0	3	0.0	14.83	0.0
	2	0.0	0.0	3	0.05605	44.51	-12.76
	2	0.0	0.0	3	0.057670000000000006	31.87	-9.818
	2	0.0	0.0	3	0.0579	64.55	-14.66
	2	0.0	0.0	3	0.07515000000000001	45.63	-14.62
	2	0.0	0.0	3	0.07938	34.57	-11.34
	2	0.0	0.0	3	0.0	30.0	0.0
	2	0.0	0.0	3	0.0	30.0	0.0
	2	0.0	0.0	3	0.0	30.0	0.0
	2	0.0	0.0	3	0.0	30.0	0.0
	2	0.0	0.0	3	0.0	30.0	0.0
	2	0.0	0.0	3	0.0	30.0	0.0
	2	0.0	0.0	3	0.0	14.68	0.0
	2	0.0	0.0	3	0.0	30.0	0.0
	2	0.0	0.0	3	0.0	30.0	0.0
	2	0.0	0.0	3	0.0	30.0	0.0
	2	0.0	0.0	3	0.0	30.0	0.0
	2	0.0	0.0	3	0.0	30.0	0.0
	2	0.0	0.0	3	0.0	30.0	0.0
	2	0.0	0.0	3	0.0	30.0	0.0
	2	0.0	0.0	3	0.0	30.0	0.0
	2	0.0	0.0	3	0.0	30.0	0.0
	2	0.0	0.0	3	0.0	30.0	0.0
	2	0.0	0.0	3	0.0	30.0	0.0
	2	0.0	0.0	3	0.0	30.0	0.0
	2	0.0	0.0	3	0.0	16.55	0.0
	2	0.0	0.0	3	0.01265	16.74	0.0
	2	0.0	0.0	3	0.01144	14.88	0.0
	2	0.0	0.0	3	0.0	30.0	0.0
	2	0.0	0.0	3	0.0	30.0	0.0
	2	0.0	0.0	3	0.0	30.0	0.0
	2	0.0	0.0	3	0.0	30.0	0.0
	2	0.0	0.0	3	0.0	30.0	0.0
];

